/inspire/ssd/ws-f4d69b29-e0a5-44e6-bd92-acf4de9990f0/public-project/hurenling-241310070200/LamNet/model/LamNet/data/rbfe/pfkfb3-nnp/m59/m59.pdb
 OpenBabel01072509193D

 31 35  0  0  0  0  0  0  0  0999 V2000
   59.9020   30.3290   42.3890 N   0  0  0  0  0  0  0  0  0  0  0  0
   60.6090   32.7610   43.6080 N   0  0  0  0  0  0  0  0  0  0  0  0
   61.5090   31.7600   43.4420 C   0  0  0  0  0  0  0  0  0  0  0  0
   61.1510   30.5500   42.8630 C   0  0  0  0  0  0  0  0  0  0  0  0
   59.3350   32.5680   43.1320 C   0  0  0  0  0  0  0  0  0  0  0  0
   58.9890   31.3360   42.5060 C   0  0  0  0  0  0  0  0  0  0  0  0
   57.6800   31.1400   42.0150 C   0  0  0  0  0  0  0  0  0  0  0  0
   56.7140   32.1300   42.1840 C   0  0  0  0  0  0  0  0  0  0  0  0
   57.0410   33.3190   42.8150 C   0  0  0  0  0  0  0  0  0  0  0  0
   58.3430   33.5810   43.2760 C   0  0  0  0  0  0  0  0  0  0  0  0
   58.6190   34.8730   43.9300 C   0  0  0  0  0  0  0  0  0  0  0  0
   55.3900   31.9260   41.7710 N   0  0  0  0  0  0  0  0  0  0  0  0
   59.6220   35.7270   43.4470 C   0  0  0  0  0  0  0  0  0  0  0  0
   59.8860   36.9490   44.0720 C   0  0  0  0  0  0  0  0  0  0  0  0
   57.8860   35.2480   45.0600 C   0  0  0  0  0  0  0  0  0  0  0  0
   54.8710   31.1680   40.7170 C   0  0  0  0  0  0  0  0  0  0  0  0
   55.6150   30.9680   39.5450 C   0  0  0  0  0  0  0  0  0  0  0  0
   55.1530   30.2930   38.4670 N   0  0  0  0  0  0  0  0  0  0  0  0
   53.8970   29.7810   38.5400 C   0  0  0  0  0  0  0  0  0  0  0  0
   53.0840   29.9170   39.6640 C   0  0  0  0  0  0  0  0  0  0  0  0
   53.5770   30.6180   40.7710 C   0  0  0  0  0  0  0  0  0  0  0  0
   52.5790   30.6960   42.2610 S   0  0  0  0  0  0  0  0  0  0  0  0
   51.2400   30.1960   41.9480 O   0  0  0  0  0  0  0  0  0  0  0  0
   52.7470   32.0330   42.8450 O   0  0  0  0  0  0  0  0  0  0  0  0
   53.4330   29.4480   43.3780 C   0  0  0  0  0  0  0  0  0  0  0  0
   58.1430   36.4520   45.6850 C   0  0  0  0  0  0  0  0  0  0  0  0
   59.1370   37.3070   45.1840 C   0  0  0  0  0  0  0  0  0  0  0  0
   59.3880   38.5430   45.7410 O   0  0  0  0  0  0  0  0  0  0  0  0
   58.9180   38.6700   47.0780 C   0  0  0  0  0  0  0  0  0  0  0  0
   57.4940   38.1070   47.2080 C   0  0  0  0  0  0  0  0  0  0  0  0
   57.4430   36.7330   46.8420 O   0  0  0  0  0  0  0  0  0  0  0  0
  1  4  2  0  0  0  0
  1  6  1  0  0  0  0
  2  3  2  0  0  0  0
  2  5  1  0  0  0  0
  3  4  1  0  0  0  0
  5  6  2  0  0  0  0
  5 10  1  0  0  0  0
  6  7  1  0  0  0  0
  7  8  2  0  0  0  0
  8  9  1  0  0  0  0
  8 12  1  0  0  0  0
  9 10  2  0  0  0  0
 10 11  1  0  0  0  0
 11 13  2  0  0  0  0
 11 15  1  0  0  0  0
 12 16  1  0  0  0  0
 13 14  1  0  0  0  0
 14 27  2  0  0  0  0
 15 26  2  0  0  0  0
 16 17  2  0  0  0  0
 16 21  1  0  0  0  0
 17 18  1  0  0  0  0
 18 19  2  0  0  0  0
 19 20  1  0  0  0  0
 20 21  2  0  0  0  0
 21 22  1  0  0  0  0
 22 23  2  0  0  0  0
 22 24  2  0  0  0  0
 22 25  1  0  0  0  0
 26 27  1  0  0  0  0
 26 31  1  0  0  0  0
 27 28  1  0  0  0  0
 28 29  1  0  0  0  0
 29 30  1  0  0  0  0
 30 31  1  0  0  0  0
M  END
$$$$
