/inspire/ssd/ws-f4d69b29-e0a5-44e6-bd92-acf4de9990f0/public-project/hurenling-241310070200/LamNet/model/LamNet/data/rbfe/pfkfb3-nnp/m53/m53.pdb
 OpenBabel01072509193D

 33 37  0  0  0  0  0  0  0  0999 V2000
   58.3660   33.6000   43.2620 C   0  0  0  0  0  0  0  0  0  0  0  0
   57.6630   31.1540   42.0260 C   0  0  0  0  0  0  0  0  0  0  0  0
   56.7070   32.1510   42.1950 C   0  0  0  0  0  0  0  0  0  0  0  0
   57.0580   33.3470   42.8210 C   0  0  0  0  0  0  0  0  0  0  0  0
   58.9780   31.3370   42.5060 C   0  0  0  0  0  0  0  0  0  0  0  0
   59.3420   32.5740   43.1230 C   0  0  0  0  0  0  0  0  0  0  0  0
   60.6110   32.7490   43.6010 N   0  0  0  0  0  0  0  0  0  0  0  0
   61.4970   31.7390   43.4430 C   0  0  0  0  0  0  0  0  0  0  0  0
   61.1370   30.5350   42.8590 C   0  0  0  0  0  0  0  0  0  0  0  0
   59.8790   30.3270   42.3860 N   0  0  0  0  0  0  0  0  0  0  0  0
   58.6920   34.8820   43.9290 C   0  0  0  0  0  0  0  0  0  0  0  0
   59.6560   35.7580   43.4050 C   0  0  0  0  0  0  0  0  0  0  0  0
   59.9200   36.9810   44.0180 C   0  0  0  0  0  0  0  0  0  0  0  0
   58.0640   35.1820   45.1250 C   0  0  0  0  0  0  0  0  0  0  0  0
   55.3830   31.9480   41.7830 N   0  0  0  0  0  0  0  0  0  0  0  0
   54.8630   31.1730   40.7320 C   0  0  0  0  0  0  0  0  0  0  0  0
   55.6120   30.9530   39.5670 C   0  0  0  0  0  0  0  0  0  0  0  0
   55.1480   30.2680   38.4920 N   0  0  0  0  0  0  0  0  0  0  0  0
   53.8880   29.7740   38.5600 C   0  0  0  0  0  0  0  0  0  0  0  0
   53.0710   29.9300   39.6780 C   0  0  0  0  0  0  0  0  0  0  0  0
   53.5650   30.6310   40.7850 C   0  0  0  0  0  0  0  0  0  0  0  0
   52.5650   30.7180   42.2760 S   0  0  0  0  0  0  0  0  0  0  0  0
   51.2290   30.1950   41.9610 O   0  0  0  0  0  0  0  0  0  0  0  0
   52.7120   32.0600   42.8400 O   0  0  0  0  0  0  0  0  0  0  0  0
   53.4160   29.4900   43.4220 C   0  0  0  0  0  0  0  0  0  0  0  0
   58.2590   36.4290   45.7090 C   0  0  0  0  0  0  0  0  0  0  0  0
   59.1820   37.3430   45.1480 C   0  0  0  0  0  0  0  0  0  0  0  0
   59.1420   38.5090   45.9950 C   0  0  0  0  0  0  0  0  0  0  0  0
   58.2080   38.2570   46.9780 C   0  0  0  0  0  0  0  0  0  0  0  0
   57.6850   37.0050   46.8340 N   0  0  0  0  0  0  0  0  0  0  0  0
   56.7010   36.3650   47.7080 C   0  0  0  0  0  0  0  0  0  0  0  0
   55.3040   36.1300   47.0700 C   0  0  0  0  0  0  0  0  0  0  0  0
   55.2020   36.0720   45.5310 C   0  0  0  0  0  0  0  0  0  0  0  0
  1  4  2  0  0  0  0
  1  6  1  0  0  0  0
  1 11  1  0  0  0  0
  2  3  2  0  0  0  0
  2  5  1  0  0  0  0
  3  4  1  0  0  0  0
  3 15  1  0  0  0  0
  5  6  2  0  0  0  0
  5 10  1  0  0  0  0
  6  7  1  0  0  0  0
  7  8  2  0  0  0  0
  8  9  1  0  0  0  0
  9 10  2  0  0  0  0
 11 12  2  0  0  0  0
 11 14  1  0  0  0  0
 12 13  1  0  0  0  0
 13 27  2  0  0  0  0
 14 26  2  0  0  0  0
 15 16  1  0  0  0  0
 16 17  2  0  0  0  0
 16 21  1  0  0  0  0
 17 18  1  0  0  0  0
 18 19  2  0  0  0  0
 19 20  1  0  0  0  0
 20 21  2  0  0  0  0
 21 22  1  0  0  0  0
 22 23  2  0  0  0  0
 22 24  2  0  0  0  0
 22 25  1  0  0  0  0
 26 27  1  0  0  0  0
 26 30  1  0  0  0  0
 27 28  1  0  0  0  0
 28 29  2  0  0  0  0
 29 30  1  0  0  0  0
 30 31  1  0  0  0  0
 31 32  1  0  0  0  0
 32 33  1  0  0  0  0
M  END
$$$$
