/inspire/ssd/ws-f4d69b29-e0a5-44e6-bd92-acf4de9990f0/public-project/hurenling-241310070200/LamNet/model/LamNet/data/rbfe/pfkfb3-nnp/m36/m36.pdb
 OpenBabel01072509193D

 32 36  0  0  0  0  0  0  0  0999 V2000
   57.5490   31.2710   41.9590 C   0  0  0  0  0  0  0  0  0  0  0  0
   56.6080   32.2860   42.1670 C   0  0  0  0  0  0  0  0  0  0  0  0
   57.0360   33.4730   42.7670 C   0  0  0  0  0  0  0  0  0  0  0  0
   58.3480   33.6760   43.1970 C   0  0  0  0  0  0  0  0  0  0  0  0
   58.8700   31.4040   42.4120 C   0  0  0  0  0  0  0  0  0  0  0  0
   59.3010   32.6230   43.0400 C   0  0  0  0  0  0  0  0  0  0  0  0
   60.5750   32.7330   43.5110 N   0  0  0  0  0  0  0  0  0  0  0  0
   61.3950   31.6620   43.3900 C   0  0  0  0  0  0  0  0  0  0  0  0
   60.9770   30.4800   42.8010 C   0  0  0  0  0  0  0  0  0  0  0  0
   59.7270   30.3560   42.2940 N   0  0  0  0  0  0  0  0  0  0  0  0
   58.6570   34.9510   43.8870 C   0  0  0  0  0  0  0  0  0  0  0  0
   59.6890   35.7710   43.4570 C   0  0  0  0  0  0  0  0  0  0  0  0
   59.9760   36.9830   44.0860 C   0  0  0  0  0  0  0  0  0  0  0  0
   57.8710   35.3120   44.9930 C   0  0  0  0  0  0  0  0  0  0  0  0
   58.2150   36.4720   45.6890 C   0  0  0  0  0  0  0  0  0  0  0  0
   59.2400   37.3440   45.2310 C   0  0  0  0  0  0  0  0  0  0  0  0
   59.2640   38.4500   46.1310 C   0  0  0  0  0  0  0  0  0  0  0  0
   58.3830   38.1650   47.1630 C   0  0  0  0  0  0  0  0  0  0  0  0
   57.7270   36.9830   46.8700 N   0  0  0  0  0  0  0  0  0  0  0  0
   55.2630   32.0740   41.7690 N   0  0  0  0  0  0  0  0  0  0  0  0
   56.7010   36.3730   47.6930 C   0  0  0  0  0  0  0  0  0  0  0  0
   54.8620   31.1490   40.8020 C   0  0  0  0  0  0  0  0  0  0  0  0
   53.6940   30.3600   40.8600 C   0  0  0  0  0  0  0  0  0  0  0  0
   53.3490   29.6100   39.7300 C   0  0  0  0  0  0  0  0  0  0  0  0
   54.1610   29.6740   38.6000 C   0  0  0  0  0  0  0  0  0  0  0  0
   55.3560   30.2910   38.5770 N   0  0  0  0  0  0  0  0  0  0  0  0
   55.6910   30.9980   39.6780 C   0  0  0  0  0  0  0  0  0  0  0  0
   52.6870   30.2610   42.3540 S   0  0  0  0  0  0  0  0  0  0  0  0
   52.6610   31.6060   42.9210 O   0  0  0  0  0  0  0  0  0  0  0  0
   51.4260   29.6180   41.9850 O   0  0  0  0  0  0  0  0  0  0  0  0
   53.5890   29.1200   43.5790 C   0  0  0  0  0  0  0  0  0  0  0  0
   54.1640   32.6930   42.5120 C   0  0  0  0  0  0  0  0  0  0  0  0
  1  2  2  0  0  0  0
  1  5  1  0  0  0  0
  2  3  1  0  0  0  0
  2 20  1  0  0  0  0
  3  4  2  0  0  0  0
  4  6  1  0  0  0  0
  4 11  1  0  0  0  0
  5  6  2  0  0  0  0
  5 10  1  0  0  0  0
  6  7  1  0  0  0  0
  7  8  2  0  0  0  0
  8  9  1  0  0  0  0
  9 10  2  0  0  0  0
 11 12  2  0  0  0  0
 11 14  1  0  0  0  0
 12 13  1  0  0  0  0
 13 16  2  0  0  0  0
 14 15  2  0  0  0  0
 15 16  1  0  0  0  0
 15 19  1  0  0  0  0
 16 17  1  0  0  0  0
 17 18  2  0  0  0  0
 18 19  1  0  0  0  0
 19 21  1  0  0  0  0
 20 22  1  0  0  0  0
 20 32  1  0  0  0  0
 22 23  2  0  0  0  0
 22 27  1  0  0  0  0
 23 24  1  0  0  0  0
 23 28  1  0  0  0  0
 24 25  2  0  0  0  0
 25 26  1  0  0  0  0
 26 27  2  0  0  0  0
 28 29  2  0  0  0  0
 28 30  2  0  0  0  0
 28 31  1  0  0  0  0
M  END
$$$$
