/inspire/ssd/ws-f4d69b29-e0a5-44e6-bd92-acf4de9990f0/public-project/hurenling-241310070200/LamNet/model/LamNet/data/rbfe/pfkfb3-nnp/m55/m55.pdb
 OpenBabel01072509193D

 32 36  0  0  0  0  0  0  0  0999 V2000
   56.7190   32.1420   42.1920 C   0  0  0  0  0  0  0  0  0  0  0  0
   57.0600   33.3330   42.8240 C   0  0  0  0  0  0  0  0  0  0  0  0
   58.3610   33.5910   43.2700 C   0  0  0  0  0  0  0  0  0  0  0  0
   57.6780   31.1470   42.0150 C   0  0  0  0  0  0  0  0  0  0  0  0
   58.9880   31.3350   42.4980 C   0  0  0  0  0  0  0  0  0  0  0  0
   59.3490   32.5700   43.1240 C   0  0  0  0  0  0  0  0  0  0  0  0
   60.6230   32.7440   43.5950 N   0  0  0  0  0  0  0  0  0  0  0  0
   61.5120   31.7330   43.4280 C   0  0  0  0  0  0  0  0  0  0  0  0
   61.1400   30.5270   42.8460 C   0  0  0  0  0  0  0  0  0  0  0  0
   59.8900   30.3230   42.3730 N   0  0  0  0  0  0  0  0  0  0  0  0
   55.3940   31.9430   41.7870 N   0  0  0  0  0  0  0  0  0  0  0  0
   58.6530   34.8850   43.9320 C   0  0  0  0  0  0  0  0  0  0  0  0
   59.6520   35.7290   43.4380 C   0  0  0  0  0  0  0  0  0  0  0  0
   59.9320   36.9550   44.0340 C   0  0  0  0  0  0  0  0  0  0  0  0
   57.9160   35.2320   45.0670 C   0  0  0  0  0  0  0  0  0  0  0  0
   58.2110   36.4450   45.6810 C   0  0  0  0  0  0  0  0  0  0  0  0
   59.1880   37.3440   45.1610 C   0  0  0  0  0  0  0  0  0  0  0  0
   59.1630   38.5020   46.0060 C   0  0  0  0  0  0  0  0  0  0  0  0
   58.2420   38.2630   46.9940 C   0  0  0  0  0  0  0  0  0  0  0  0
   57.6970   37.0140   46.8320 N   0  0  0  0  0  0  0  0  0  0  0  0
   56.7380   36.4020   47.7390 C   0  0  0  0  0  0  0  0  0  0  0  0
   54.8710   31.1720   40.7340 C   0  0  0  0  0  0  0  0  0  0  0  0
   55.6170   30.9520   39.5690 C   0  0  0  0  0  0  0  0  0  0  0  0
   55.1500   30.2700   38.4940 N   0  0  0  0  0  0  0  0  0  0  0  0
   53.8880   29.7800   38.5630 C   0  0  0  0  0  0  0  0  0  0  0  0
   53.0730   29.9350   39.6840 C   0  0  0  0  0  0  0  0  0  0  0  0
   53.5730   30.6330   40.7910 C   0  0  0  0  0  0  0  0  0  0  0  0
   52.5750   30.7140   42.2840 S   0  0  0  0  0  0  0  0  0  0  0  0
   51.2410   30.1970   41.9760 O   0  0  0  0  0  0  0  0  0  0  0  0
   52.7290   32.0600   42.8530 O   0  0  0  0  0  0  0  0  0  0  0  0
   53.4320   29.4880   43.4300 C   0  0  0  0  0  0  0  0  0  0  0  0
   60.8940   37.7500   43.5060 F   0  0  0  0  0  0  0  0  0  0  0  0
  1  2  2  0  0  0  0
  1  4  1  0  0  0  0
  1 11  1  0  0  0  0
  2  3  1  0  0  0  0
  3  6  2  0  0  0  0
  3 12  1  0  0  0  0
  4  5  2  0  0  0  0
  5  6  1  0  0  0  0
  5 10  1  0  0  0  0
  6  7  1  0  0  0  0
  7  8  2  0  0  0  0
  8  9  1  0  0  0  0
  9 10  2  0  0  0  0
 11 22  1  0  0  0  0
 12 13  2  0  0  0  0
 12 15  1  0  0  0  0
 13 14  1  0  0  0  0
 14 17  2  0  0  0  0
 14 32  1  0  0  0  0
 15 16  2  0  0  0  0
 16 17  1  0  0  0  0
 16 20  1  0  0  0  0
 17 18  1  0  0  0  0
 18 19  2  0  0  0  0
 19 20  1  0  0  0  0
 20 21  1  0  0  0  0
 22 23  2  0  0  0  0
 22 27  1  0  0  0  0
 23 24  1  0  0  0  0
 24 25  2  0  0  0  0
 25 26  1  0  0  0  0
 26 27  2  0  0  0  0
 27 28  1  0  0  0  0
 28 29  2  0  0  0  0
 28 30  2  0  0  0  0
 28 31  1  0  0  0  0
M  END
$$$$
