/inspire/ssd/ws-f4d69b29-e0a5-44e6-bd92-acf4de9990f0/public-project/hurenling-241310070200/LamNet/model/LamNet/data/rbfe/pfkfb3-nnp/m60/m60.pdb
 OpenBabel01072509193D

 32 36  0  0  0  0  0  0  0  0999 V2000
   57.7000   31.1050   42.0720 C   0  0  0  0  0  0  0  0  0  0  0  0
   56.8580   32.2110   42.0720 C   0  0  0  0  0  0  0  0  0  0  0  0
   57.3330   33.4320   42.5210 C   0  0  0  0  0  0  0  0  0  0  0  0
   58.6400   33.5970   42.9950 C   0  0  0  0  0  0  0  0  0  0  0  0
   59.0210   31.2110   42.5640 C   0  0  0  0  0  0  0  0  0  0  0  0
   59.5100   32.4720   43.0250 C   0  0  0  0  0  0  0  0  0  0  0  0
   60.7770   32.5760   43.5310 N   0  0  0  0  0  0  0  0  0  0  0  0
   61.5420   31.4570   43.5550 C   0  0  0  0  0  0  0  0  0  0  0  0
   61.0510   30.2300   43.1260 C   0  0  0  0  0  0  0  0  0  0  0  0
   59.7990   30.0960   42.6270 N   0  0  0  0  0  0  0  0  0  0  0  0
   55.5130   32.1130   41.7030 N   0  0  0  0  0  0  0  0  0  0  0  0
   54.8790   31.2990   40.7540 C   0  0  0  0  0  0  0  0  0  0  0  0
   55.5720   30.8750   39.6160 C   0  0  0  0  0  0  0  0  0  0  0  0
   55.0090   30.1400   38.6280 N   0  0  0  0  0  0  0  0  0  0  0  0
   53.7040   29.8030   38.7650 C   0  0  0  0  0  0  0  0  0  0  0  0
   52.9350   30.1670   39.8680 C   0  0  0  0  0  0  0  0  0  0  0  0
   53.5260   30.9390   40.8780 C   0  0  0  0  0  0  0  0  0  0  0  0
   52.5680   31.3750   42.3390 S   0  0  0  0  0  0  0  0  0  0  0  0
   52.7840   30.3050   43.3160 O   0  0  0  0  0  0  0  0  0  0  0  0
   52.9080   32.7590   42.6840 O   0  0  0  0  0  0  0  0  0  0  0  0
   50.7610   31.3420   41.8080 C   0  0  0  0  0  0  0  0  0  0  0  0
   58.9930   34.9010   43.5920 C   0  0  0  0  0  0  0  0  0  0  0  0
   60.0920   35.6820   43.1960 C   0  0  0  0  0  0  0  0  0  0  0  0
   60.3040   36.9370   43.7810 C   0  0  0  0  0  0  0  0  0  0  0  0
   58.1520   35.3650   44.5960 C   0  0  0  0  0  0  0  0  0  0  0  0
   58.3620   36.5870   45.1880 C   0  0  0  0  0  0  0  0  0  0  0  0
   59.4220   37.3660   44.7740 C   0  0  0  0  0  0  0  0  0  0  0  0
   59.4300   38.5960   45.3640 O   0  0  0  0  0  0  0  0  0  0  0  0
   58.4300   38.5560   46.3860 C   0  0  0  0  0  0  0  0  0  0  0  0
   57.5100   37.3080   46.1670 C   0  0  0  0  0  0  0  0  0  0  0  0
   57.3080   36.5670   47.4850 C   0  0  0  0  0  0  0  0  0  0  0  0
   56.1030   37.4600   45.5410 C   0  0  0  0  0  0  0  0  0  0  0  0
  1  2  2  0  0  0  0
  1  5  1  0  0  0  0
  2  3  1  0  0  0  0
  2 11  1  0  0  0  0
  3  4  2  0  0  0  0
  4  6  1  0  0  0  0
  4 22  1  0  0  0  0
  5  6  2  0  0  0  0
  5 10  1  0  0  0  0
  6  7  1  0  0  0  0
  7  8  2  0  0  0  0
  8  9  1  0  0  0  0
  9 10  2  0  0  0  0
 11 12  1  0  0  0  0
 12 13  2  0  0  0  0
 12 17  1  0  0  0  0
 13 14  1  0  0  0  0
 14 15  2  0  0  0  0
 15 16  1  0  0  0  0
 16 17  2  0  0  0  0
 17 18  1  0  0  0  0
 18 19  2  0  0  0  0
 18 20  2  0  0  0  0
 18 21  1  0  0  0  0
 22 23  2  0  0  0  0
 22 25  1  0  0  0  0
 23 24  1  0  0  0  0
 24 27  2  0  0  0  0
 25 26  2  0  0  0  0
 26 27  1  0  0  0  0
 26 30  1  0  0  0  0
 27 28  1  0  0  0  0
 28 29  1  0  0  0  0
 29 30  1  0  0  0  0
 30 31  1  0  0  0  0
 30 32  1  0  0  0  0
M  END
$$$$
