/inspire/ssd/ws-f4d69b29-e0a5-44e6-bd92-acf4de9990f0/public-project/hurenling-241310070200/LamNet/model/LamNet/data/rbfe/pfkfb3-nnp/m49/m49.pdb
 OpenBabel01072509193D

 28 31  0  0  0  0  0  0  0  0999 V2000
   58.3440   33.5760   43.2780 C   0  0  0  0  0  0  0  0  0  0  0  0
   57.6710   31.1470   42.0180 C   0  0  0  0  0  0  0  0  0  0  0  0
   56.7080   32.1360   42.1790 C   0  0  0  0  0  0  0  0  0  0  0  0
   57.0490   33.3220   42.8120 C   0  0  0  0  0  0  0  0  0  0  0  0
   58.9900   31.3370   42.5050 C   0  0  0  0  0  0  0  0  0  0  0  0
   59.3450   32.5680   43.1360 C   0  0  0  0  0  0  0  0  0  0  0  0
   60.6150   32.7610   43.6090 N   0  0  0  0  0  0  0  0  0  0  0  0
   61.5140   31.7550   43.4460 C   0  0  0  0  0  0  0  0  0  0  0  0
   61.1450   30.5470   42.8580 C   0  0  0  0  0  0  0  0  0  0  0  0
   59.9000   30.3300   42.3890 N   0  0  0  0  0  0  0  0  0  0  0  0
   58.6310   34.8730   43.9410 C   0  0  0  0  0  0  0  0  0  0  0  0
   59.6250   35.7280   43.4410 C   0  0  0  0  0  0  0  0  0  0  0  0
   59.8700   36.9450   44.0780 C   0  0  0  0  0  0  0  0  0  0  0  0
   59.1300   37.3070   45.1790 C   0  0  0  0  0  0  0  0  0  0  0  0
   58.1440   36.4760   45.6920 C   0  0  0  0  0  0  0  0  0  0  0  0
   57.9020   35.2530   45.0710 C   0  0  0  0  0  0  0  0  0  0  0  0
   55.3880   31.9190   41.7660 N   0  0  0  0  0  0  0  0  0  0  0  0
   54.8670   31.1520   40.7050 C   0  0  0  0  0  0  0  0  0  0  0  0
   55.6170   30.9600   39.5430 C   0  0  0  0  0  0  0  0  0  0  0  0
   55.1360   30.2970   38.4630 N   0  0  0  0  0  0  0  0  0  0  0  0
   53.8910   29.7870   38.5340 C   0  0  0  0  0  0  0  0  0  0  0  0
   53.0820   29.9130   39.6650 C   0  0  0  0  0  0  0  0  0  0  0  0
   53.5720   30.6160   40.7740 C   0  0  0  0  0  0  0  0  0  0  0  0
   52.5750   30.6750   42.2520 S   0  0  0  0  0  0  0  0  0  0  0  0
   51.2440   30.2020   41.9510 O   0  0  0  0  0  0  0  0  0  0  0  0
   52.7640   32.0180   42.8540 O   0  0  0  0  0  0  0  0  0  0  0  0
   53.4330   29.4040   43.3540 C   0  0  0  0  0  0  0  0  0  0  0  0
   59.3640   38.5170   45.8090 N   0  0  0  0  0  0  0  0  0  0  0  0
  1  4  2  0  0  0  0
  1  6  1  0  0  0  0
  1 11  1  0  0  0  0
  2  3  2  0  0  0  0
  2  5  1  0  0  0  0
  3  4  1  0  0  0  0
  3 17  1  0  0  0  0
  5  6  2  0  0  0  0
  5 10  1  0  0  0  0
  6  7  1  0  0  0  0
  7  8  2  0  0  0  0
  8  9  1  0  0  0  0
  9 10  2  0  0  0  0
 11 12  2  0  0  0  0
 11 16  1  0  0  0  0
 12 13  1  0  0  0  0
 13 14  2  0  0  0  0
 14 15  1  0  0  0  0
 14 28  1  0  0  0  0
 15 16  2  0  0  0  0
 17 18  1  0  0  0  0
 18 19  2  0  0  0  0
 18 23  1  0  0  0  0
 19 20  1  0  0  0  0
 20 21  2  0  0  0  0
 21 22  1  0  0  0  0
 22 23  2  0  0  0  0
 23 24  1  0  0  0  0
 24 25  2  0  0  0  0
 24 26  2  0  0  0  0
 24 27  1  0  0  0  0
M  END
$$$$
