/inspire/ssd/ws-f4d69b29-e0a5-44e6-bd92-acf4de9990f0/public-project/hurenling-241310070200/LamNet/model/LamNet/data/rbfe/pfkfb3-nnp/m39/m39.pdb
 OpenBabel01072509193D

 28 31  0  0  0  0  0  0  0  0999 V2000
   58.3520   33.5920   43.2680 C   0  0  0  0  0  0  0  0  0  0  0  0
   57.6800   31.1430   42.0080 C   0  0  0  0  0  0  0  0  0  0  0  0
   56.7230   32.1340   42.1900 C   0  0  0  0  0  0  0  0  0  0  0  0
   57.0570   33.3240   42.8190 C   0  0  0  0  0  0  0  0  0  0  0  0
   58.9920   31.3290   42.5100 C   0  0  0  0  0  0  0  0  0  0  0  0
   59.3390   32.5680   43.1290 C   0  0  0  0  0  0  0  0  0  0  0  0
   60.6250   32.7400   43.5990 N   0  0  0  0  0  0  0  0  0  0  0  0
   61.5100   31.7340   43.4290 C   0  0  0  0  0  0  0  0  0  0  0  0
   61.1510   30.5240   42.8590 C   0  0  0  0  0  0  0  0  0  0  0  0
   59.8900   30.3230   42.3790 N   0  0  0  0  0  0  0  0  0  0  0  0
   58.6500   34.9010   43.9370 C   0  0  0  0  0  0  0  0  0  0  0  0
   59.6460   35.7310   43.4460 C   0  0  0  0  0  0  0  0  0  0  0  0
   59.9180   36.9470   44.0480 C   0  0  0  0  0  0  0  0  0  0  0  0
   59.1600   37.3520   45.1850 C   0  0  0  0  0  0  0  0  0  0  0  0
   58.2370   36.5180   45.6640 C   0  0  0  0  0  0  0  0  0  0  0  0
   57.9250   35.3020   45.0900 C   0  0  0  0  0  0  0  0  0  0  0  0
   55.4050   31.9410   41.7810 N   0  0  0  0  0  0  0  0  0  0  0  0
   54.8610   31.1670   40.7220 C   0  0  0  0  0  0  0  0  0  0  0  0
   55.6110   30.9410   39.5520 C   0  0  0  0  0  0  0  0  0  0  0  0
   55.1440   30.2790   38.4800 N   0  0  0  0  0  0  0  0  0  0  0  0
   53.8800   29.7800   38.5480 C   0  0  0  0  0  0  0  0  0  0  0  0
   53.0700   29.9290   39.6740 C   0  0  0  0  0  0  0  0  0  0  0  0
   53.5700   30.6290   40.7840 C   0  0  0  0  0  0  0  0  0  0  0  0
   52.5760   30.7240   42.2820 S   0  0  0  0  0  0  0  0  0  0  0  0
   51.2210   30.2210   41.9600 O   0  0  0  0  0  0  0  0  0  0  0  0
   52.7470   32.0420   42.8540 O   0  0  0  0  0  0  0  0  0  0  0  0
   53.4220   29.4420   43.3800 C   0  0  0  0  0  0  0  0  0  0  0  0
   57.5200   36.8820   46.8320 N   0  0  0  0  0  0  0  0  0  0  0  0
  1  4  2  0  0  0  0
  1  6  1  0  0  0  0
  1 11  1  0  0  0  0
  2  3  2  0  0  0  0
  2  5  1  0  0  0  0
  3  4  1  0  0  0  0
  3 17  1  0  0  0  0
  5  6  2  0  0  0  0
  5 10  1  0  0  0  0
  6  7  1  0  0  0  0
  7  8  2  0  0  0  0
  8  9  1  0  0  0  0
  9 10  2  0  0  0  0
 11 12  2  0  0  0  0
 11 16  1  0  0  0  0
 12 13  1  0  0  0  0
 13 14  2  0  0  0  0
 14 15  1  0  0  0  0
 15 16  2  0  0  0  0
 15 28  1  0  0  0  0
 17 18  1  0  0  0  0
 18 19  2  0  0  0  0
 18 23  1  0  0  0  0
 19 20  1  0  0  0  0
 20 21  2  0  0  0  0
 21 22  1  0  0  0  0
 22 23  2  0  0  0  0
 23 24  1  0  0  0  0
 24 25  2  0  0  0  0
 24 26  2  0  0  0  0
 24 27  1  0  0  0  0
M  END
$$$$
